data_none

_audit_creation_method generated by ABACUS

_cell_length_a 4.25648
_cell_length_b 4.25648
_cell_length_c 4.25648
_cell_angle_alpha 90
_cell_angle_beta 90
_cell_angle_gamma 90

_symmetry_space_group_name_H-M 
_symmetry_Int_Tables_number 

loop_
_atom_site_label
_atom_site_fract_x
_atom_site_fract_y
_atom_site_fract_z
Mg 0 0 0
Mg 0 0.5 0.5
Mg 0.5 0 0.5
Mg 0.5 0.5 0
O 0.5 0 0
O 0.5 0.5 0.5
O 0 0 0.5
O 0 0.5 0
